Circuit: * gegography

Direct Newton iteration for .op point succeeded.

Date: Thu Oct 11 11:16:00 2018
Total elapsed time: 0.043 seconds.

tnom = 27
temp = 27
method = trap
totiter = 3
traniter = 0
tranpoints = 0
accept = 0
rejected = 0
matrix size = 4
fillins = 1
solver = Normal
Matrix Compiler1: 154 bytes object code size
Matrix Compiler2: 262 bytes object code size
