Circuit: * Z:\home\artbil\Documents\M-moire-Ingi\Draft1.asc

Direct Newton iteration for .op point succeeded.

Date: Thu Oct 11 11:17:20 2018
Total elapsed time: 0.060 seconds.

tnom = 27
temp = 27
method = modified trap
totiter = 2092
traniter = 2089
tranpoints = 1045
accept = 1045
rejected = 0
matrix size = 4
fillins = 1
solver = Normal
Matrix Compiler1: 154 bytes object code size  0.6/0.5/[0.5]
Matrix Compiler2:      22 opcodes  0.5/[0.5]/0.6

